
     RDKit          3D

 26 25  0  0  0  0  0  0  0  0999 V2000
   -3.9239   -0.0620   -0.8595 O   0  0  0  0  0  0  0  0  0  0  0  0
   -2.7073   -0.3766   -0.1659 C   0  0  0  0  0  0  0  0  0  0  0  0
   -1.5385   -0.0441   -1.0942 C   0  0  0  0  0  0  0  0  0  0  0  0
   -1.8001   -0.6440   -2.3875 O   0  0  0  0  0  0  0  0  0  0  0  0
   -0.1611   -0.5566   -0.6315 C   0  0  0  0  0  0  0  0  0  0  0  0
    0.7593   -0.3263   -1.7083 O   0  0  0  0  0  0  0  0  0  0  0  0
    0.3288    0.0902    0.6746 C   0  0  0  0  0  0  0  0  0  0  0  0
   -0.5235   -0.3474    1.7536 O   0  0  0  0  0  0  0  0  0  0  0  0
    1.7806   -0.2771    1.0575 C   0  0  0  0  0  0  0  0  0  0  0  0
    1.9404    0.0999    2.4512 O   0  0  0  0  0  0  0  0  0  0  0  0
    2.8753    0.4435    0.2654 C   0  0  0  0  0  0  0  0  0  0  0  0
    2.7889    1.8475    0.5350 O   0  0  0  0  0  0  0  0  0  0  0  0
   -4.6483   -0.2433   -0.2336 H   0  0  0  0  0  0  0  0  0  0  0  0
   -2.6813    0.2128    0.7533 H   0  0  0  0  0  0  0  0  0  0  0  0
   -2.7330   -1.4447    0.0706 H   0  0  0  0  0  0  0  0  0  0  0  0
   -1.5018    1.0354   -1.2824 H   0  0  0  0  0  0  0  0  0  0  0  0
   -2.7603   -0.4930   -2.5244 H   0  0  0  0  0  0  0  0  0  0  0  0
   -0.2186   -1.6450   -0.5035 H   0  0  0  0  0  0  0  0  0  0  0  0
    0.2434   -0.5496   -2.5143 H   0  0  0  0  0  0  0  0  0  0  0  0
    0.2304    1.1806    0.6217 H   0  0  0  0  0  0  0  0  0  0  0  0
    0.0342   -0.2578    2.5579 H   0  0  0  0  0  0  0  0  0  0  0  0
    1.9188   -1.3625    1.0098 H   0  0  0  0  0  0  0  0  0  0  0  0
    2.1979    1.0465    2.4183 H   0  0  0  0  0  0  0  0  0  0  0  0
    2.8237    0.2756   -0.8103 H   0  0  0  0  0  0  0  0  0  0  0  0
    3.8594    0.1170    0.6182 H   0  0  0  0  0  0  0  0  0  0  0  0
    3.4166    2.2810   -0.0716 H   0  0  0  0  0  0  0  0  0  0  0  0
  1  2  1  0
  2  3  1  0
  3  4  1  0
  3  5  1  0
  5  6  1  0
  5  7  1  0
  7  8  1  0
  7  9  1  0
  9 10  1  0
  9 11  1  0
 11 12  1  0
  1 13  1  0
  2 14  1  0
  2 15  1  0
  3 16  1  0
  4 17  1  0
  5 18  1  0
  6 19  1  0
  7 20  1  0
  8 21  1  0
  9 22  1  0
 10 23  1  0
 11 24  1  0
 11 25  1  0
 12 26  1  0
M  END
>  <Conformer_ID>  (1) 
14

>  <MMFF94_energy_kcal_mol>  (1) 
88.73636223534442

>  <Relative_MMFF94_energy_kcal_mol>  (1) 
0.0

>  <Optimization_converged>  (1) 
True

>  <Method>  (1) 
ETKDGv3 + MMFF94

$$$$

     RDKit          3D

 26 25  0  0  0  0  0  0  0  0999 V2000
    3.9682    0.7779   -0.5635 O   0  0  0  0  0  0  0  0  0  0  0  0
    2.7402    0.0524   -0.3980 C   0  0  0  0  0  0  0  0  0  0  0  0
    1.6109    1.0718   -0.2384 C   0  0  0  0  0  0  0  0  0  0  0  0
    2.0351    2.0580    0.7385 O   0  0  0  0  0  0  0  0  0  0  0  0
    0.2643    0.5082    0.2588 C   0  0  0  0  0  0  0  0  0  0  0  0
   -0.5659    1.6470    0.5634 O   0  0  0  0  0  0  0  0  0  0  0  0
   -0.4577   -0.4002   -0.7527 C   0  0  0  0  0  0  0  0  0  0  0  0
    0.4050   -1.4814   -1.1452 O   0  0  0  0  0  0  0  0  0  0  0  0
   -1.7603   -1.0444   -0.2350 C   0  0  0  0  0  0  0  0  0  0  0  0
   -1.4071   -2.0568    0.7353 O   0  0  0  0  0  0  0  0  0  0  0  0
   -2.7950   -0.1033    0.3788 C   0  0  0  0  0  0  0  0  0  0  0  0
   -3.9628   -0.8785    0.6845 O   0  0  0  0  0  0  0  0  0  0  0  0
    4.6598    0.1110   -0.7253 H   0  0  0  0  0  0  0  0  0  0  0  0
    2.6060   -0.5813   -1.2765 H   0  0  0  0  0  0  0  0  0  0  0  0
    2.8444   -0.5654    0.4992 H   0  0  0  0  0  0  0  0  0  0  0  0
    1.4729    1.6332   -1.1699 H   0  0  0  0  0  0  0  0  0  0  0  0
    2.9830    2.2018    0.5264 H   0  0  0  0  0  0  0  0  0  0  0  0
    0.4296   -0.0256    1.2025 H   0  0  0  0  0  0  0  0  0  0  0  0
    0.0529    2.2829    0.9869 H   0  0  0  0  0  0  0  0  0  0  0  0
   -0.6941    0.1849   -1.6493 H   0  0  0  0  0  0  0  0  0  0  0  0
    0.2011   -2.2039   -0.5111 H   0  0  0  0  0  0  0  0  0  0  0  0
   -2.2226   -1.6022   -1.0593 H   0  0  0  0  0  0  0  0  0  0  0  0
   -2.2680   -2.3369    1.1113 H   0  0  0  0  0  0  0  0  0  0  0  0
   -2.4516    0.3129    1.3292 H   0  0  0  0  0  0  0  0  0  0  0  0
   -3.0755    0.6942   -0.3148 H   0  0  0  0  0  0  0  0  0  0  0  0
   -4.6130   -0.2562    1.0575 H   0  0  0  0  0  0  0  0  0  0  0  0
  1  2  1  0
  2  3  1  0
  3  4  1  0
  3  5  1  0
  5  6  1  0
  5  7  1  0
  7  8  1  0
  7  9  1  0
  9 10  1  0
  9 11  1  0
 11 12  1  0
  1 13  1  0
  2 14  1  0
  2 15  1  0
  3 16  1  0
  4 17  1  0
  5 18  1  0
  6 19  1  0
  7 20  1  0
  8 21  1  0
  9 22  1  0
 10 23  1  0
 11 24  1  0
 11 25  1  0
 12 26  1  0
M  END
>  <Conformer_ID>  (2) 
4

>  <MMFF94_energy_kcal_mol>  (2) 
88.83628863261315

>  <Relative_MMFF94_energy_kcal_mol>  (2) 
0.09992639726873165

>  <Optimization_converged>  (2) 
True

>  <Method>  (2) 
ETKDGv3 + MMFF94

$$$$

     RDKit          3D

 26 25  0  0  0  0  0  0  0  0999 V2000
    3.1635   -0.1674   -0.7358 O   0  0  0  0  0  0  0  0  0  0  0  0
    2.3426    0.8364   -0.1430 C   0  0  0  0  0  0  0  0  0  0  0  0
    1.4608    0.1867    0.9248 C   0  0  0  0  0  0  0  0  0  0  0  0
    2.3153   -0.3879    1.9369 O   0  0  0  0  0  0  0  0  0  0  0  0
    0.5631   -0.9551    0.4112 C   0  0  0  0  0  0  0  0  0  0  0  0
   -0.1998   -1.4514    1.5396 O   0  0  0  0  0  0  0  0  0  0  0  0
   -0.4178   -0.5718   -0.7148 C   0  0  0  0  0  0  0  0  0  0  0  0
   -1.0873   -1.7707   -1.1406 O   0  0  0  0  0  0  0  0  0  0  0  0
   -1.4787    0.4625   -0.2852 C   0  0  0  0  0  0  0  0  0  0  0  0
   -2.3149   -0.0427    0.7733 O   0  0  0  0  0  0  0  0  0  0  0  0
   -2.4057    0.8422   -1.4443 C   0  0  0  0  0  0  0  0  0  0  0  0
   -3.3103    1.8562   -1.0000 O   0  0  0  0  0  0  0  0  0  0  0  0
    3.7385    0.2781   -1.3851 H   0  0  0  0  0  0  0  0  0  0  0  0
    1.7504    1.3242   -0.9217 H   0  0  0  0  0  0  0  0  0  0  0  0
    3.0077    1.5747    0.3167 H   0  0  0  0  0  0  0  0  0  0  0  0
    0.8609    0.9475    1.4344 H   0  0  0  0  0  0  0  0  0  0  0  0
    3.0439   -0.8214    1.4456 H   0  0  0  0  0  0  0  0  0  0  0  0
    1.1750   -1.8057    0.0865 H   0  0  0  0  0  0  0  0  0  0  0  0
    0.4674   -1.5738    2.2499 H   0  0  0  0  0  0  0  0  0  0  0  0
    0.1369   -0.1999   -1.5820 H   0  0  0  0  0  0  0  0  0  0  0  0
   -1.5472   -2.1123   -0.3474 H   0  0  0  0  0  0  0  0  0  0  0  0
   -1.0014    1.3702    0.0988 H   0  0  0  0  0  0  0  0  0  0  0  0
   -1.7325   -0.5535    1.3781 H   0  0  0  0  0  0  0  0  0  0  0  0
   -3.0092   -0.0084   -1.7765 H   0  0  0  0  0  0  0  0  0  0  0  0
   -1.8422    1.2366   -2.2947 H   0  0  0  0  0  0  0  0  0  0  0  0
   -3.6789    1.5068   -0.1634 H   0  0  0  0  0  0  0  0  0  0  0  0
  1  2  1  0
  2  3  1  0
  3  4  1  0
  3  5  1  0
  5  6  1  0
  5  7  1  0
  7  8  1  0
  7  9  1  0
  9 10  1  0
  9 11  1  0
 11 12  1  0
  1 13  1  0
  2 14  1  0
  2 15  1  0
  3 16  1  0
  4 17  1  0
  5 18  1  0
  6 19  1  0
  7 20  1  0
  8 21  1  0
  9 22  1  0
 10 23  1  0
 11 24  1  0
 11 25  1  0
 12 26  1  0
M  END
>  <Conformer_ID>  (3) 
10

>  <MMFF94_energy_kcal_mol>  (3) 
89.51047818500615

>  <Relative_MMFF94_energy_kcal_mol>  (3) 
0.7741159496617342

>  <Optimization_converged>  (3) 
True

>  <Method>  (3) 
ETKDGv3 + MMFF94

$$$$

     RDKit          3D

 26 25  0  0  0  0  0  0  0  0999 V2000
   -3.7532    1.0147   -0.1511 O   0  0  0  0  0  0  0  0  0  0  0  0
   -2.7117    0.6924    0.7777 C   0  0  0  0  0  0  0  0  0  0  0  0
   -1.3840    0.6678    0.0121 C   0  0  0  0  0  0  0  0  0  0  0  0
   -1.2278    1.9122   -0.6779 O   0  0  0  0  0  0  0  0  0  0  0  0
   -0.1933    0.4261    0.9459 C   0  0  0  0  0  0  0  0  0  0  0  0
   -0.3074   -0.8533    1.5817 O   0  0  0  0  0  0  0  0  0  0  0  0
    1.1839    0.5520    0.2647 C   0  0  0  0  0  0  0  0  0  0  0  0
    2.1812    0.0988    1.2145 O   0  0  0  0  0  0  0  0  0  0  0  0
    1.3786   -0.2120   -1.0621 C   0  0  0  0  0  0  0  0  0  0  0  0
    2.7324    0.0533   -1.4987 O   0  0  0  0  0  0  0  0  0  0  0  0
    1.2089   -1.7356   -0.9740 C   0  0  0  0  0  0  0  0  0  0  0  0
    2.2638   -2.2974   -0.1887 O   0  0  0  0  0  0  0  0  0  0  0  0
   -4.5901    0.9715    0.3456 H   0  0  0  0  0  0  0  0  0  0  0  0
   -2.9319   -0.2766    1.2351 H   0  0  0  0  0  0  0  0  0  0  0  0
   -2.7077    1.4719    1.5462 H   0  0  0  0  0  0  0  0  0  0  0  0
   -1.4471   -0.1177   -0.7497 H   0  0  0  0  0  0  0  0  0  0  0  0
   -2.1144    2.0978   -1.0537 H   0  0  0  0  0  0  0  0  0  0  0  0
   -0.2186    1.1663    1.7566 H   0  0  0  0  0  0  0  0  0  0  0  0
    0.5104   -0.9356    2.1146 H   0  0  0  0  0  0  0  0  0  0  0  0
    1.3934    1.6142    0.0846 H   0  0  0  0  0  0  0  0  0  0  0  0
    3.0330    0.3532    0.8016 H   0  0  0  0  0  0  0  0  0  0  0  0
    0.7072    0.1889   -1.8276 H   0  0  0  0  0  0  0  0  0  0  0  0
    3.2300   -0.7786   -1.3571 H   0  0  0  0  0  0  0  0  0  0  0  0
    1.3050   -2.1725   -1.9734 H   0  0  0  0  0  0  0  0  0  0  0  0
    0.2427   -2.0403   -0.5663 H   0  0  0  0  0  0  0  0  0  0  0  0
    2.2168   -1.8613    0.6861 H   0  0  0  0  0  0  0  0  0  0  0  0
  1  2  1  0
  2  3  1  0
  3  4  1  0
  3  5  1  0
  5  6  1  0
  5  7  1  0
  7  8  1  0
  7  9  1  0
  9 10  1  0
  9 11  1  0
 11 12  1  0
  1 13  1  0
  2 14  1  0
  2 15  1  0
  3 16  1  0
  4 17  1  0
  5 18  1  0
  6 19  1  0
  7 20  1  0
  8 21  1  0
  9 22  1  0
 10 23  1  0
 11 24  1  0
 11 25  1  0
 12 26  1  0
M  END
>  <Conformer_ID>  (4) 
12

>  <MMFF94_energy_kcal_mol>  (4) 
91.32571613431995

>  <Relative_MMFF94_energy_kcal_mol>  (4) 
2.5893538989755314

>  <Optimization_converged>  (4) 
True

>  <Method>  (4) 
ETKDGv3 + MMFF94

$$$$

     RDKit          3D

 26 25  0  0  0  0  0  0  0  0999 V2000
    3.4037    1.5212    0.1707 O   0  0  0  0  0  0  0  0  0  0  0  0
    2.8293    0.2122    0.2170 C   0  0  0  0  0  0  0  0  0  0  0  0
    1.3035    0.3678    0.2205 C   0  0  0  0  0  0  0  0  0  0  0  0
    0.9471    1.1054   -0.9651 O   0  0  0  0  0  0  0  0  0  0  0  0
    0.5978   -0.9870    0.1708 C   0  0  0  0  0  0  0  0  0  0  0  0
    0.7080   -1.5313   -1.1637 O   0  0  0  0  0  0  0  0  0  0  0  0
   -0.8935   -1.0081    0.5644 C   0  0  0  0  0  0  0  0  0  0  0  0
   -1.3623   -2.3662    0.3160 O   0  0  0  0  0  0  0  0  0  0  0  0
   -1.8602   -0.0769   -0.2005 C   0  0  0  0  0  0  0  0  0  0  0  0
   -3.2001   -0.6041   -0.0183 O   0  0  0  0  0  0  0  0  0  0  0  0
   -1.9159    1.3642    0.3133 C   0  0  0  0  0  0  0  0  0  0  0  0
   -2.2945    1.3738    1.6918 O   0  0  0  0  0  0  0  0  0  0  0  0
    4.3709    1.4052    0.1943 H   0  0  0  0  0  0  0  0  0  0  0  0
    3.1730   -0.3280   -0.6709 H   0  0  0  0  0  0  0  0  0  0  0  0
    3.1789   -0.2981    1.1194 H   0  0  0  0  0  0  0  0  0  0  0  0
    0.9979    0.9511    1.0957 H   0  0  0  0  0  0  0  0  0  0  0  0
    1.5716    1.8636   -0.9723 H   0  0  0  0  0  0  0  0  0  0  0  0
    1.1135   -1.6983    0.8276 H   0  0  0  0  0  0  0  0  0  0  0  0
    0.6924   -0.7498   -1.7588 H   0  0  0  0  0  0  0  0  0  0  0  0
   -0.9955   -0.8507    1.6435 H   0  0  0  0  0  0  0  0  0  0  0  0
   -0.8600   -2.6655   -0.4732 H   0  0  0  0  0  0  0  0  0  0  0  0
   -1.6595   -0.1015   -1.2762 H   0  0  0  0  0  0  0  0  0  0  0  0
   -3.0729   -1.5752    0.0561 H   0  0  0  0  0  0  0  0  0  0  0  0
   -0.9750    1.9023    0.2206 H   0  0  0  0  0  0  0  0  0  0  0  0
   -2.6803    1.9296   -0.2308 H   0  0  0  0  0  0  0  0  0  0  0  0
   -3.1177    0.8444    1.7214 H   0  0  0  0  0  0  0  0  0  0  0  0
  1  2  1  0
  2  3  1  0
  3  4  1  0
  3  5  1  0
  5  6  1  0
  5  7  1  0
  7  8  1  0
  7  9  1  0
  9 10  1  0
  9 11  1  0
 11 12  1  0
  1 13  1  0
  2 14  1  0
  2 15  1  0
  3 16  1  0
  4 17  1  0
  5 18  1  0
  6 19  1  0
  7 20  1  0
  8 21  1  0
  9 22  1  0
 10 23  1  0
 11 24  1  0
 11 25  1  0
 12 26  1  0
M  END
>  <Conformer_ID>  (5) 
1

>  <MMFF94_energy_kcal_mol>  (5) 
91.35075299509502

>  <Relative_MMFF94_energy_kcal_mol>  (5) 
2.6143907597506058

>  <Optimization_converged>  (5) 
True

>  <Method>  (5) 
ETKDGv3 + MMFF94

$$$$

     RDKit          3D

 26 25  0  0  0  0  0  0  0  0999 V2000
    3.1839   -0.1525    0.7060 O   0  0  0  0  0  0  0  0  0  0  0  0
    2.8841    0.6980   -0.4068 C   0  0  0  0  0  0  0  0  0  0  0  0
    1.3721    0.9623   -0.4249 C   0  0  0  0  0  0  0  0  0  0  0  0
    0.9853    1.3999    0.8814 O   0  0  0  0  0  0  0  0  0  0  0  0
    0.5724   -0.2846   -0.8370 C   0  0  0  0  0  0  0  0  0  0  0  0
    0.9828   -0.6887   -2.1588 O   0  0  0  0  0  0  0  0  0  0  0  0
   -0.9525   -0.0604   -0.8845 C   0  0  0  0  0  0  0  0  0  0  0  0
   -1.5329   -1.2434   -1.4915 O   0  0  0  0  0  0  0  0  0  0  0  0
   -1.6689    0.2094    0.4495 C   0  0  0  0  0  0  0  0  0  0  0  0
   -3.0944    0.2405    0.1776 O   0  0  0  0  0  0  0  0  0  0  0  0
   -1.4436   -0.8772    1.5064 C   0  0  0  0  0  0  0  0  0  0  0  0
   -2.2468   -0.5918    2.6544 O   0  0  0  0  0  0  0  0  0  0  0  0
    4.1265   -0.3868    0.6272 H   0  0  0  0  0  0  0  0  0  0  0  0
    3.2399    0.2336   -1.3309 H   0  0  0  0  0  0  0  0  0  0  0  0
    3.4255    1.6357   -0.2452 H   0  0  0  0  0  0  0  0  0  0  0  0
    1.1694    1.7733   -1.1338 H   0  0  0  0  0  0  0  0  0  0  0  0
    1.5663    0.9031    1.4979 H   0  0  0  0  0  0  0  0  0  0  0  0
    0.7973   -1.1274   -0.1740 H   0  0  0  0  0  0  0  0  0  0  0  0
    0.2927   -1.3264   -2.4422 H   0  0  0  0  0  0  0  0  0  0  0  0
   -1.1825    0.7496   -1.5876 H   0  0  0  0  0  0  0  0  0  0  0  0
   -2.4928   -1.1856   -1.3025 H   0  0  0  0  0  0  0  0  0  0  0  0
   -1.4185    1.1899    0.8644 H   0  0  0  0  0  0  0  0  0  0  0  0
   -3.2813    1.1153   -0.2114 H   0  0  0  0  0  0  0  0  0  0  0  0
   -1.7473   -1.8628    1.1396 H   0  0  0  0  0  0  0  0  0  0  0  0
   -0.4005   -0.9242    1.8287 H   0  0  0  0  0  0  0  0  0  0  0  0
   -3.1362   -0.3989    2.2981 H   0  0  0  0  0  0  0  0  0  0  0  0
  1  2  1  0
  2  3  1  0
  3  4  1  0
  3  5  1  0
  5  6  1  0
  5  7  1  0
  7  8  1  0
  7  9  1  0
  9 10  1  0
  9 11  1  0
 11 12  1  0
  1 13  1  0
  2 14  1  0
  2 15  1  0
  3 16  1  0
  4 17  1  0
  5 18  1  0
  6 19  1  0
  7 20  1  0
  8 21  1  0
  9 22  1  0
 10 23  1  0
 11 24  1  0
 11 25  1  0
 12 26  1  0
M  END
>  <Conformer_ID>  (6) 
8

>  <MMFF94_energy_kcal_mol>  (6) 
92.17063919963235

>  <Relative_MMFF94_energy_kcal_mol>  (6) 
3.434276964287932

>  <Optimization_converged>  (6) 
True

>  <Method>  (6) 
ETKDGv3 + MMFF94

$$$$

     RDKit          3D

 26 25  0  0  0  0  0  0  0  0999 V2000
   -3.8504   -0.0711    0.9711 O   0  0  0  0  0  0  0  0  0  0  0  0
   -2.9471   -0.4779   -0.0629 C   0  0  0  0  0  0  0  0  0  0  0  0
   -1.5130   -0.3707    0.4689 C   0  0  0  0  0  0  0  0  0  0  0  0
   -1.4006   -1.2456    1.6112 O   0  0  0  0  0  0  0  0  0  0  0  0
   -0.4817   -0.8168   -0.5790 C   0  0  0  0  0  0  0  0  0  0  0  0
   -0.6132   -2.2515   -0.7503 O   0  0  0  0  0  0  0  0  0  0  0  0
    0.9885   -0.5567   -0.1818 C   0  0  0  0  0  0  0  0  0  0  0  0
    1.8297   -1.3943   -1.0009 O   0  0  0  0  0  0  0  0  0  0  0  0
    1.4354    0.8991   -0.3848 C   0  0  0  0  0  0  0  0  0  0  0  0
    0.5846    1.8285    0.2929 O   0  0  0  0  0  0  0  0  0  0  0  0
    2.8747    1.1162    0.1013 C   0  0  0  0  0  0  0  0  0  0  0  0
    3.2139    2.4954   -0.0931 O   0  0  0  0  0  0  0  0  0  0  0  0
   -3.7864    0.8982    1.0455 H   0  0  0  0  0  0  0  0  0  0  0  0
   -3.2009   -1.5123   -0.3143 H   0  0  0  0  0  0  0  0  0  0  0  0
   -3.1070    0.1538   -0.9419 H   0  0  0  0  0  0  0  0  0  0  0  0
   -1.3469    0.6458    0.8282 H   0  0  0  0  0  0  0  0  0  0  0  0
   -2.2264   -1.1068    2.1205 H   0  0  0  0  0  0  0  0  0  0  0  0
   -0.6841   -0.3632   -1.5557 H   0  0  0  0  0  0  0  0  0  0  0  0
   -0.7721   -2.5919    0.1579 H   0  0  0  0  0  0  0  0  0  0  0  0
    1.1475   -0.8693    0.8568 H   0  0  0  0  0  0  0  0  0  0  0  0
    1.2924   -2.1987   -1.1692 H   0  0  0  0  0  0  0  0  0  0  0  0
    1.3920    1.1566   -1.4502 H   0  0  0  0  0  0  0  0  0  0  0  0
    1.1328    2.6327    0.4152 H   0  0  0  0  0  0  0  0  0  0  0  0
    2.9529    0.9202    1.1754 H   0  0  0  0  0  0  0  0  0  0  0  0
    3.6003    0.4921   -0.4288 H   0  0  0  0  0  0  0  0  0  0  0  0
    3.4848    2.5880   -1.0245 H   0  0  0  0  0  0  0  0  0  0  0  0
  1  2  1  0
  2  3  1  0
  3  4  1  0
  3  5  1  0
  5  6  1  0
  5  7  1  0
  7  8  1  0
  7  9  1  0
  9 10  1  0
  9 11  1  0
 11 12  1  0
  1 13  1  0
  2 14  1  0
  2 15  1  0
  3 16  1  0
  4 17  1  0
  5 18  1  0
  6 19  1  0
  7 20  1  0
  8 21  1  0
  9 22  1  0
 10 23  1  0
 11 24  1  0
 11 25  1  0
 12 26  1  0
M  END
>  <Conformer_ID>  (7) 
11

>  <MMFF94_energy_kcal_mol>  (7) 
92.20435250532645

>  <Relative_MMFF94_energy_kcal_mol>  (7) 
3.467990269982039

>  <Optimization_converged>  (7) 
True

>  <Method>  (7) 
ETKDGv3 + MMFF94

$$$$

     RDKit          3D

 26 25  0  0  0  0  0  0  0  0999 V2000
   -3.7660    0.9217    1.3231 O   0  0  0  0  0  0  0  0  0  0  0  0
   -2.6550    0.7363    0.4400 C   0  0  0  0  0  0  0  0  0  0  0  0
   -1.3680    0.7845    1.2666 C   0  0  0  0  0  0  0  0  0  0  0  0
   -1.4188   -0.2623    2.2595 O   0  0  0  0  0  0  0  0  0  0  0  0
   -0.0900    0.6405    0.4165 C   0  0  0  0  0  0  0  0  0  0  0  0
    1.0193    1.0022    1.2630 O   0  0  0  0  0  0  0  0  0  0  0  0
    0.1322   -0.7999   -0.1036 C   0  0  0  0  0  0  0  0  0  0  0  0
    0.4869   -1.6572    0.9939 O   0  0  0  0  0  0  0  0  0  0  0  0
    1.1910   -0.9085   -1.2126 C   0  0  0  0  0  0  0  0  0  0  0  0
    0.7462   -0.1899   -2.3756 O   0  0  0  0  0  0  0  0  0  0  0  0
    2.5882   -0.4103   -0.8339 C   0  0  0  0  0  0  0  0  0  0  0  0
    3.4546   -0.6300   -1.9573 O   0  0  0  0  0  0  0  0  0  0  0  0
   -3.8355    1.8759    1.5075 H   0  0  0  0  0  0  0  0  0  0  0  0
   -2.7934   -0.2413   -0.0295 H   0  0  0  0  0  0  0  0  0  0  0  0
   -2.6790    1.5112   -0.3321 H   0  0  0  0  0  0  0  0  0  0  0  0
   -1.3317    1.7235    1.8321 H   0  0  0  0  0  0  0  0  0  0  0  0
   -2.3314   -0.2229    2.6177 H   0  0  0  0  0  0  0  0  0  0  0  0
   -0.1213    1.3609   -0.4075 H   0  0  0  0  0  0  0  0  0  0  0  0
    1.0783    0.2852    1.9270 H   0  0  0  0  0  0  0  0  0  0  0  0
   -0.8065   -1.1771   -0.5248 H   0  0  0  0  0  0  0  0  0  0  0  0
   -0.2271   -1.5429    1.6605 H   0  0  0  0  0  0  0  0  0  0  0  0
    1.2766   -1.9600   -1.5147 H   0  0  0  0  0  0  0  0  0  0  0  0
    1.5212   -0.2063   -2.9751 H   0  0  0  0  0  0  0  0  0  0  0  0
    2.9893   -0.9473    0.0303 H   0  0  0  0  0  0  0  0  0  0  0  0
    2.5965    0.6668   -0.6482 H   0  0  0  0  0  0  0  0  0  0  0  0
    4.3435   -0.3528   -1.6721 H   0  0  0  0  0  0  0  0  0  0  0  0
  1  2  1  0
  2  3  1  0
  3  4  1  0
  3  5  1  0
  5  6  1  0
  5  7  1  0
  7  8  1  0
  7  9  1  0
  9 10  1  0
  9 11  1  0
 11 12  1  0
  1 13  1  0
  2 14  1  0
  2 15  1  0
  3 16  1  0
  4 17  1  0
  5 18  1  0
  6 19  1  0
  7 20  1  0
  8 21  1  0
  9 22  1  0
 10 23  1  0
 11 24  1  0
 11 25  1  0
 12 26  1  0
M  END
>  <Conformer_ID>  (8) 
7

>  <MMFF94_energy_kcal_mol>  (8) 
92.27782181629937

>  <Relative_MMFF94_energy_kcal_mol>  (8) 
3.5414595809549496

>  <Optimization_converged>  (8) 
True

>  <Method>  (8) 
ETKDGv3 + MMFF94

$$$$

     RDKit          3D

 26 25  0  0  0  0  0  0  0  0999 V2000
    3.5846    1.9086   -0.5326 O   0  0  0  0  0  0  0  0  0  0  0  0
    2.2979    1.3288   -0.7744 C   0  0  0  0  0  0  0  0  0  0  0  0
    2.1090    0.1360    0.1627 C   0  0  0  0  0  0  0  0  0  0  0  0
    3.2548   -0.7330   -0.0041 O   0  0  0  0  0  0  0  0  0  0  0  0
    0.8323   -0.6902   -0.0864 C   0  0  0  0  0  0  0  0  0  0  0  0
    0.9182   -1.8436    0.7733 O   0  0  0  0  0  0  0  0  0  0  0  0
   -0.4626    0.1134    0.1686 C   0  0  0  0  0  0  0  0  0  0  0  0
   -0.6692    0.9734   -0.9623 O   0  0  0  0  0  0  0  0  0  0  0  0
   -1.6961   -0.7963    0.3849 C   0  0  0  0  0  0  0  0  0  0  0  0
   -1.8838   -1.6117   -0.7807 O   0  0  0  0  0  0  0  0  0  0  0  0
   -2.9901   -0.0118    0.6496 C   0  0  0  0  0  0  0  0  0  0  0  0
   -3.2319    0.9172   -0.4113 O   0  0  0  0  0  0  0  0  0  0  0  0
    4.1854    1.1393   -0.4511 H   0  0  0  0  0  0  0  0  0  0  0  0
    1.5485    2.1062   -0.6108 H   0  0  0  0  0  0  0  0  0  0  0  0
    2.2747    1.0165   -1.8232 H   0  0  0  0  0  0  0  0  0  0  0  0
    2.1529    0.4700    1.2062 H   0  0  0  0  0  0  0  0  0  0  0  0
    3.0070   -1.5505    0.4751 H   0  0  0  0  0  0  0  0  0  0  0  0
    0.8589   -1.0633   -1.1185 H   0  0  0  0  0  0  0  0  0  0  0  0
    0.3261   -2.5142    0.3772 H   0  0  0  0  0  0  0  0  0  0  0  0
   -0.3398    0.7461    1.0556 H   0  0  0  0  0  0  0  0  0  0  0  0
   -1.5966    1.2962   -0.9163 H   0  0  0  0  0  0  0  0  0  0  0  0
   -1.5317   -1.4705    1.2319 H   0  0  0  0  0  0  0  0  0  0  0  0
   -2.0495   -0.9836   -1.5130 H   0  0  0  0  0  0  0  0  0  0  0  0
   -2.9215    0.5480    1.5872 H   0  0  0  0  0  0  0  0  0  0  0  0
   -3.8438   -0.6959    0.6936 H   0  0  0  0  0  0  0  0  0  0  0  0
   -4.1339    1.2650   -0.2744 H   0  0  0  0  0  0  0  0  0  0  0  0
  1  2  1  0
  2  3  1  0
  3  4  1  0
  3  5  1  0
  5  6  1  0
  5  7  1  0
  7  8  1  0
  7  9  1  0
  9 10  1  0
  9 11  1  0
 11 12  1  0
  1 13  1  0
  2 14  1  0
  2 15  1  0
  3 16  1  0
  4 17  1  0
  5 18  1  0
  6 19  1  0
  7 20  1  0
  8 21  1  0
  9 22  1  0
 10 23  1  0
 11 24  1  0
 11 25  1  0
 12 26  1  0
M  END
>  <Conformer_ID>  (9) 
15

>  <MMFF94_energy_kcal_mol>  (9) 
92.78494937808804

>  <Relative_MMFF94_energy_kcal_mol>  (9) 
4.048587142743628

>  <Optimization_converged>  (9) 
True

>  <Method>  (9) 
ETKDGv3 + MMFF94

$$$$

     RDKit          3D

 26 25  0  0  0  0  0  0  0  0999 V2000
    1.9430    1.8580    0.9616 O   0  0  0  0  0  0  0  0  0  0  0  0
    2.5605    0.8470    0.1785 C   0  0  0  0  0  0  0  0  0  0  0  0
    2.0165   -0.5526    0.5020 C   0  0  0  0  0  0  0  0  0  0  0  0
    2.9107   -1.5319   -0.0635 O   0  0  0  0  0  0  0  0  0  0  0  0
    0.6146   -0.8713   -0.0653 C   0  0  0  0  0  0  0  0  0  0  0  0
    0.6744   -0.8149   -1.5076 O   0  0  0  0  0  0  0  0  0  0  0  0
   -0.5027    0.0789    0.4021 C   0  0  0  0  0  0  0  0  0  0  0  0
   -0.3664    1.3282   -0.3079 O   0  0  0  0  0  0  0  0  0  0  0  0
   -1.9087   -0.5125    0.1457 C   0  0  0  0  0  0  0  0  0  0  0  0
   -2.0592   -1.7217    0.8941 O   0  0  0  0  0  0  0  0  0  0  0  0
   -3.0186    0.4750    0.5442 C   0  0  0  0  0  0  0  0  0  0  0  0
   -3.0498    1.6187   -0.2990 O   0  0  0  0  0  0  0  0  0  0  0  0
    1.0689    2.0362    0.5527 H   0  0  0  0  0  0  0  0  0  0  0  0
    2.4579    1.0911   -0.8846 H   0  0  0  0  0  0  0  0  0  0  0  0
    3.6338    0.8809    0.3963 H   0  0  0  0  0  0  0  0  0  0  0  0
    1.9949   -0.7002    1.5882 H   0  0  0  0  0  0  0  0  0  0  0  0
    3.7550   -1.4550    0.4178 H   0  0  0  0  0  0  0  0  0  0  0  0
    0.3744   -1.9083    0.1973 H   0  0  0  0  0  0  0  0  0  0  0  0
    1.4424   -1.3805   -1.7363 H   0  0  0  0  0  0  0  0  0  0  0  0
   -0.3912    0.2744    1.4752 H   0  0  0  0  0  0  0  0  0  0  0  0
   -0.1979    1.0496   -1.2387 H   0  0  0  0  0  0  0  0  0  0  0  0
   -2.0118   -0.7447   -0.9214 H   0  0  0  0  0  0  0  0  0  0  0  0
   -2.9018   -2.1263    0.6184 H   0  0  0  0  0  0  0  0  0  0  0  0
   -2.8977    0.8021    1.5830 H   0  0  0  0  0  0  0  0  0  0  0  0
   -3.9965   -0.0144    0.4823 H   0  0  0  0  0  0  0  0  0  0  0  0
   -2.1445    1.9943   -0.2884 H   0  0  0  0  0  0  0  0  0  0  0  0
  1  2  1  0
  2  3  1  0
  3  4  1  0
  3  5  1  0
  5  6  1  0
  5  7  1  0
  7  8  1  0
  7  9  1  0
  9 10  1  0
  9 11  1  0
 11 12  1  0
  1 13  1  0
  2 14  1  0
  2 15  1  0
  3 16  1  0
  4 17  1  0
  5 18  1  0
  6 19  1  0
  7 20  1  0
  8 21  1  0
  9 22  1  0
 10 23  1  0
 11 24  1  0
 11 25  1  0
 12 26  1  0
M  END
>  <Conformer_ID>  (10) 
3

>  <MMFF94_energy_kcal_mol>  (10) 
97.72992940729328

>  <Relative_MMFF94_energy_kcal_mol>  (10) 
8.993567171948868

>  <Optimization_converged>  (10) 
True

>  <Method>  (10) 
ETKDGv3 + MMFF94

$$$$

     RDKit          3D

 26 25  0  0  0  0  0  0  0  0999 V2000
    3.5431    0.9015    0.2070 O   0  0  0  0  0  0  0  0  0  0  0  0
    2.7839   -0.2854    0.4657 C   0  0  0  0  0  0  0  0  0  0  0  0
    1.3003    0.0575    0.2869 C   0  0  0  0  0  0  0  0  0  0  0  0
    0.9983    1.2140    1.0860 O   0  0  0  0  0  0  0  0  0  0  0  0
    0.3891   -1.1178    0.6771 C   0  0  0  0  0  0  0  0  0  0  0  0
    0.6496   -2.2248   -0.1895 O   0  0  0  0  0  0  0  0  0  0  0  0
   -1.1208   -0.7644    0.6992 C   0  0  0  0  0  0  0  0  0  0  0  0
   -1.3994    0.1883    1.7349 O   0  0  0  0  0  0  0  0  0  0  0  0
   -1.6890   -0.3167   -0.6676 C   0  0  0  0  0  0  0  0  0  0  0  0
   -3.0334   -0.8304   -0.8019 O   0  0  0  0  0  0  0  0  0  0  0  0
   -1.7745    1.2004   -0.8672 C   0  0  0  0  0  0  0  0  0  0  0  0
   -2.3388    1.4480   -2.1626 O   0  0  0  0  0  0  0  0  0  0  0  0
    4.4819    0.6441    0.2506 H   0  0  0  0  0  0  0  0  0  0  0  0
    3.1030   -1.0714   -0.2250 H   0  0  0  0  0  0  0  0  0  0  0  0
    2.9963   -0.5891    1.4957 H   0  0  0  0  0  0  0  0  0  0  0  0
    1.1419    0.3386   -0.7605 H   0  0  0  0  0  0  0  0  0  0  0  0
    1.7830    1.7940    0.9672 H   0  0  0  0  0  0  0  0  0  0  0  0
    0.6605   -1.4271    1.6952 H   0  0  0  0  0  0  0  0  0  0  0  0
    0.0342   -2.9410    0.0557 H   0  0  0  0  0  0  0  0  0  0  0  0
   -1.6559   -1.6774    0.9904 H   0  0  0  0  0  0  0  0  0  0  0  0
   -0.6581    0.8332    1.7385 H   0  0  0  0  0  0  0  0  0  0  0  0
   -1.1322   -0.7774   -1.4910 H   0  0  0  0  0  0  0  0  0  0  0  0
   -3.4030   -0.3527   -1.5720 H   0  0  0  0  0  0  0  0  0  0  0  0
   -2.4452    1.6601   -0.1344 H   0  0  0  0  0  0  0  0  0  0  0  0
   -0.7957    1.6811   -0.8252 H   0  0  0  0  0  0  0  0  0  0  0  0
   -2.4194    2.4149   -2.2466 H   0  0  0  0  0  0  0  0  0  0  0  0
  1  2  1  0
  2  3  1  0
  3  4  1  0
  3  5  1  0
  5  6  1  0
  5  7  1  0
  7  8  1  0
  7  9  1  0
  9 10  1  0
  9 11  1  0
 11 12  1  0
  1 13  1  0
  2 14  1  0
  2 15  1  0
  3 16  1  0
  4 17  1  0
  5 18  1  0
  6 19  1  0
  7 20  1  0
  8 21  1  0
  9 22  1  0
 10 23  1  0
 11 24  1  0
 11 25  1  0
 12 26  1  0
M  END
>  <Conformer_ID>  (11) 
0

>  <MMFF94_energy_kcal_mol>  (11) 
99.60146245024518

>  <Relative_MMFF94_energy_kcal_mol>  (11) 
10.865100214900764

>  <Optimization_converged>  (11) 
True

>  <Method>  (11) 
ETKDGv3 + MMFF94

$$$$

     RDKit          3D

 26 25  0  0  0  0  0  0  0  0999 V2000
   -3.2893    0.3170   -0.1072 O   0  0  0  0  0  0  0  0  0  0  0  0
   -2.8603   -1.0403   -0.2479 C   0  0  0  0  0  0  0  0  0  0  0  0
   -1.3933   -1.1347    0.1911 C   0  0  0  0  0  0  0  0  0  0  0  0
   -1.2524   -0.4997    1.4655 O   0  0  0  0  0  0  0  0  0  0  0  0
   -0.4418   -0.5236   -0.8632 C   0  0  0  0  0  0  0  0  0  0  0  0
   -0.3104   -1.5061   -1.9164 O   0  0  0  0  0  0  0  0  0  0  0  0
    0.9797   -0.1875   -0.3443 C   0  0  0  0  0  0  0  0  0  0  0  0
    1.4690   -1.2698    0.4626 O   0  0  0  0  0  0  0  0  0  0  0  0
    1.0852    1.1618    0.3987 C   0  0  0  0  0  0  0  0  0  0  0  0
    0.7298    2.2268   -0.4924 O   0  0  0  0  0  0  0  0  0  0  0  0
    2.5014    1.4301    0.9308 C   0  0  0  0  0  0  0  0  0  0  0  0
    3.4276    1.5012   -0.1556 O   0  0  0  0  0  0  0  0  0  0  0  0
   -4.1780    0.3720   -0.5027 H   0  0  0  0  0  0  0  0  0  0  0  0
   -3.4899   -1.6442    0.4132 H   0  0  0  0  0  0  0  0  0  0  0  0
   -3.0027   -1.3676   -1.2822 H   0  0  0  0  0  0  0  0  0  0  0  0
   -1.1491   -2.1956    0.3237 H   0  0  0  0  0  0  0  0  0  0  0  0
   -1.8729    0.2622    1.4261 H   0  0  0  0  0  0  0  0  0  0  0  0
   -0.8844    0.3665   -1.3221 H   0  0  0  0  0  0  0  0  0  0  0  0
    0.3641   -2.1442   -1.6120 H   0  0  0  0  0  0  0  0  0  0  0  0
    1.6369   -0.1473   -1.2224 H   0  0  0  0  0  0  0  0  0  0  0  0
    0.9001   -1.2950    1.2607 H   0  0  0  0  0  0  0  0  0  0  0  0
    0.4021    1.2003    1.2497 H   0  0  0  0  0  0  0  0  0  0  0  0
    1.5517    2.4584   -0.9720 H   0  0  0  0  0  0  0  0  0  0  0  0
    2.5298    2.4043    1.4296 H   0  0  0  0  0  0  0  0  0  0  0  0
    2.8331    0.6683    1.6431 H   0  0  0  0  0  0  0  0  0  0  0  0
    3.7139    0.5866   -0.3377 H   0  0  0  0  0  0  0  0  0  0  0  0
  1  2  1  0
  2  3  1  0
  3  4  1  0
  3  5  1  0
  5  6  1  0
  5  7  1  0
  7  8  1  0
  7  9  1  0
  9 10  1  0
  9 11  1  0
 11 12  1  0
  1 13  1  0
  2 14  1  0
  2 15  1  0
  3 16  1  0
  4 17  1  0
  5 18  1  0
  6 19  1  0
  7 20  1  0
  8 21  1  0
  9 22  1  0
 10 23  1  0
 11 24  1  0
 11 25  1  0
 12 26  1  0
M  END
>  <Conformer_ID>  (12) 
2

>  <MMFF94_energy_kcal_mol>  (12) 
100.6611331314035

>  <Relative_MMFF94_energy_kcal_mol>  (12) 
11.924770896059087

>  <Optimization_converged>  (12) 
True

>  <Method>  (12) 
ETKDGv3 + MMFF94

$$$$

     RDKit          3D

 26 25  0  0  0  0  0  0  0  0999 V2000
    3.5411    0.6504   -1.4490 O   0  0  0  0  0  0  0  0  0  0  0  0
    3.3977    0.3289   -0.0684 C   0  0  0  0  0  0  0  0  0  0  0  0
    2.0987   -0.4390    0.2223 C   0  0  0  0  0  0  0  0  0  0  0  0
    2.1404   -0.9004    1.5768 O   0  0  0  0  0  0  0  0  0  0  0  0
    0.8359    0.4276   -0.0274 C   0  0  0  0  0  0  0  0  0  0  0  0
    0.9213    1.0572   -1.3160 O   0  0  0  0  0  0  0  0  0  0  0  0
   -0.4711   -0.4053    0.0828 C   0  0  0  0  0  0  0  0  0  0  0  0
   -0.4558   -1.1936    1.2824 O   0  0  0  0  0  0  0  0  0  0  0  0
   -1.7382    0.4922    0.0463 C   0  0  0  0  0  0  0  0  0  0  0  0
   -1.6727    1.4333   -1.0305 O   0  0  0  0  0  0  0  0  0  0  0  0
   -3.0179   -0.3504   -0.0890 C   0  0  0  0  0  0  0  0  0  0  0  0
   -3.1144   -1.3035    0.9638 O   0  0  0  0  0  0  0  0  0  0  0  0
    2.6683    0.9999   -1.7329 H   0  0  0  0  0  0  0  0  0  0  0  0
    4.2654   -0.2690    0.2306 H   0  0  0  0  0  0  0  0  0  0  0  0
    3.4388    1.2562    0.5139 H   0  0  0  0  0  0  0  0  0  0  0  0
    2.0655   -1.3136   -0.4392 H   0  0  0  0  0  0  0  0  0  0  0  0
    1.2474   -1.2650    1.7648 H   0  0  0  0  0  0  0  0  0  0  0  0
    0.8109    1.2181    0.7336 H   0  0  0  0  0  0  0  0  0  0  0  0
    0.0354    1.4495   -1.4861 H   0  0  0  0  0  0  0  0  0  0  0  0
   -0.5050   -1.0930   -0.7719 H   0  0  0  0  0  0  0  0  0  0  0  0
   -1.3730   -1.5292    1.4070 H   0  0  0  0  0  0  0  0  0  0  0  0
   -1.7856    1.0521    0.9889 H   0  0  0  0  0  0  0  0  0  0  0  0
   -2.4335    2.0370   -0.9338 H   0  0  0  0  0  0  0  0  0  0  0  0
   -3.0305   -0.8790   -1.0486 H   0  0  0  0  0  0  0  0  0  0  0  0
   -3.8994    0.2994   -0.0612 H   0  0  0  0  0  0  0  0  0  0  0  0
   -3.9697   -1.7606    0.8538 H   0  0  0  0  0  0  0  0  0  0  0  0
  1  2  1  0
  2  3  1  0
  3  4  1  0
  3  5  1  0
  5  6  1  0
  5  7  1  0
  7  8  1  0
  7  9  1  0
  9 10  1  0
  9 11  1  0
 11 12  1  0
  1 13  1  0
  2 14  1  0
  2 15  1  0
  3 16  1  0
  4 17  1  0
  5 18  1  0
  6 19  1  0
  7 20  1  0
  8 21  1  0
  9 22  1  0
 10 23  1  0
 11 24  1  0
 11 25  1  0
 12 26  1  0
M  END
>  <Conformer_ID>  (13) 
5

>  <MMFF94_energy_kcal_mol>  (13) 
100.71909443502835

>  <Relative_MMFF94_energy_kcal_mol>  (13) 
11.982732199683937

>  <Optimization_converged>  (13) 
True

>  <Method>  (13) 
ETKDGv3 + MMFF94

$$$$

     RDKit          3D

 26 25  0  0  0  0  0  0  0  0999 V2000
    2.5958   -1.4651    1.8565 O   0  0  0  0  0  0  0  0  0  0  0  0
    2.9102   -0.3056    1.0760 C   0  0  0  0  0  0  0  0  0  0  0  0
    1.6018    0.3618    0.6272 C   0  0  0  0  0  0  0  0  0  0  0  0
    0.7911    0.5478    1.7933 O   0  0  0  0  0  0  0  0  0  0  0  0
    0.8713   -0.4695   -0.4448 C   0  0  0  0  0  0  0  0  0  0  0  0
    1.7449   -0.6225   -1.5856 O   0  0  0  0  0  0  0  0  0  0  0  0
   -0.4370    0.1750   -0.9604 C   0  0  0  0  0  0  0  0  0  0  0  0
   -0.8174   -0.5760   -2.1404 O   0  0  0  0  0  0  0  0  0  0  0  0
   -1.5905    0.2219    0.0714 C   0  0  0  0  0  0  0  0  0  0  0  0
   -1.7436   -1.0414    0.7255 O   0  0  0  0  0  0  0  0  0  0  0  0
   -2.9355    0.6135   -0.5566 C   0  0  0  0  0  0  0  0  0  0  0  0
   -2.8386    1.8128   -1.3135 O   0  0  0  0  0  0  0  0  0  0  0  0
    3.4353   -1.9393    1.9935 H   0  0  0  0  0  0  0  0  0  0  0  0
    3.5443   -0.5927    0.2323 H   0  0  0  0  0  0  0  0  0  0  0  0
    3.4704    0.3723    1.7281 H   0  0  0  0  0  0  0  0  0  0  0  0
    1.8411    1.3493    0.2163 H   0  0  0  0  0  0  0  0  0  0  0  0
    0.8796   -0.2998    2.2808 H   0  0  0  0  0  0  0  0  0  0  0  0
    0.6619   -1.4804   -0.0763 H   0  0  0  0  0  0  0  0  0  0  0  0
    1.1500   -0.9762   -2.2817 H   0  0  0  0  0  0  0  0  0  0  0  0
   -0.2167    1.1884   -1.3186 H   0  0  0  0  0  0  0  0  0  0  0  0
   -1.5127   -0.0534   -2.5834 H   0  0  0  0  0  0  0  0  0  0  0  0
   -1.3453    0.9695    0.8321 H   0  0  0  0  0  0  0  0  0  0  0  0
   -2.3083   -0.9030    1.5051 H   0  0  0  0  0  0  0  0  0  0  0  0
   -3.6979    0.7437    0.2200 H   0  0  0  0  0  0  0  0  0  0  0  0
   -3.3058   -0.1820   -1.2126 H   0  0  0  0  0  0  0  0  0  0  0  0
   -2.7486    2.5508   -0.6842 H   0  0  0  0  0  0  0  0  0  0  0  0
  1  2  1  0
  2  3  1  0
  3  4  1  0
  3  5  1  0
  5  6  1  0
  5  7  1  0
  7  8  1  0
  7  9  1  0
  9 10  1  0
  9 11  1  0
 11 12  1  0
  1 13  1  0
  2 14  1  0
  2 15  1  0
  3 16  1  0
  4 17  1  0
  5 18  1  0
  6 19  1  0
  7 20  1  0
  8 21  1  0
  9 22  1  0
 10 23  1  0
 11 24  1  0
 11 25  1  0
 12 26  1  0
M  END
>  <Conformer_ID>  (14) 
6

>  <MMFF94_energy_kcal_mol>  (14) 
101.92754798609828

>  <Relative_MMFF94_energy_kcal_mol>  (14) 
13.19118575075386

>  <Optimization_converged>  (14) 
True

>  <Method>  (14) 
ETKDGv3 + MMFF94

$$$$

     RDKit          3D

 26 25  0  0  0  0  0  0  0  0999 V2000
    2.8496    1.3367    0.5974 O   0  0  0  0  0  0  0  0  0  0  0  0
    2.9443    0.0419    0.0150 C   0  0  0  0  0  0  0  0  0  0  0  0
    1.8261   -0.2266   -0.9958 C   0  0  0  0  0  0  0  0  0  0  0  0
    2.2362   -1.3218   -1.8401 O   0  0  0  0  0  0  0  0  0  0  0  0
    0.4421   -0.6001   -0.4030 C   0  0  0  0  0  0  0  0  0  0  0  0
   -0.3762   -0.9455   -1.5397 O   0  0  0  0  0  0  0  0  0  0  0  0
   -0.1965    0.4971    0.4804 C   0  0  0  0  0  0  0  0  0  0  0  0
    0.5921    0.6620    1.6782 O   0  0  0  0  0  0  0  0  0  0  0  0
   -1.6455    0.2315    0.9546 C   0  0  0  0  0  0  0  0  0  0  0  0
   -1.6245   -0.8640    1.8828 O   0  0  0  0  0  0  0  0  0  0  0  0
   -2.6772    0.0057   -0.1531 C   0  0  0  0  0  0  0  0  0  0  0  0
   -2.4954    0.9264   -1.2235 O   0  0  0  0  0  0  0  0  0  0  0  0
    2.0967    1.3002    1.2268 H   0  0  0  0  0  0  0  0  0  0  0  0
    3.9170   -0.0163   -0.4858 H   0  0  0  0  0  0  0  0  0  0  0  0
    2.9582   -0.7143    0.8080 H   0  0  0  0  0  0  0  0  0  0  0  0
    1.7069    0.6430   -1.6537 H   0  0  0  0  0  0  0  0  0  0  0  0
    1.4144   -1.6224   -2.2803 H   0  0  0  0  0  0  0  0  0  0  0  0
    0.5572   -1.5220    0.1798 H   0  0  0  0  0  0  0  0  0  0  0  0
   -0.8092   -0.1290   -1.8670 H   0  0  0  0  0  0  0  0  0  0  0  0
   -0.1732    1.4498   -0.0613 H   0  0  0  0  0  0  0  0  0  0  0  0
    0.2643   -0.0350    2.2893 H   0  0  0  0  0  0  0  0  0  0  0  0
   -1.9540    1.1102    1.5359 H   0  0  0  0  0  0  0  0  0  0  0  0
   -2.5419   -1.0389    2.1603 H   0  0  0  0  0  0  0  0  0  0  0  0
   -2.6220   -1.0149   -0.5449 H   0  0  0  0  0  0  0  0  0  0  0  0
   -3.6933    0.1124    0.2446 H   0  0  0  0  0  0  0  0  0  0  0  0
   -2.9962    1.7340   -1.0049 H   0  0  0  0  0  0  0  0  0  0  0  0
  1  2  1  0
  2  3  1  0
  3  4  1  0
  3  5  1  0
  5  6  1  0
  5  7  1  0
  7  8  1  0
  7  9  1  0
  9 10  1  0
  9 11  1  0
 11 12  1  0
  1 13  1  0
  2 14  1  0
  2 15  1  0
  3 16  1  0
  4 17  1  0
  5 18  1  0
  6 19  1  0
  7 20  1  0
  8 21  1  0
  9 22  1  0
 10 23  1  0
 11 24  1  0
 11 25  1  0
 12 26  1  0
M  END
>  <Conformer_ID>  (15) 
13

>  <MMFF94_energy_kcal_mol>  (15) 
102.2804335865298

>  <Relative_MMFF94_energy_kcal_mol>  (15) 
13.54407135118538

>  <Optimization_converged>  (15) 
True

>  <Method>  (15) 
ETKDGv3 + MMFF94

$$$$

     RDKit          3D

 26 25  0  0  0  0  0  0  0  0999 V2000
    3.4845   -0.5954   -0.4870 O   0  0  0  0  0  0  0  0  0  0  0  0
    2.8068    0.6576   -0.5000 C   0  0  0  0  0  0  0  0  0  0  0  0
    2.0159    0.9081    0.7984 C   0  0  0  0  0  0  0  0  0  0  0  0
    1.5401    2.2575    0.8368 O   0  0  0  0  0  0  0  0  0  0  0  0
    0.8574   -0.0931    1.0473 C   0  0  0  0  0  0  0  0  0  0  0  0
    1.2661   -1.4251    0.6910 O   0  0  0  0  0  0  0  0  0  0  0  0
   -0.4900    0.3033    0.3804 C   0  0  0  0  0  0  0  0  0  0  0  0
   -0.2666    0.9416   -0.8877 O   0  0  0  0  0  0  0  0  0  0  0  0
   -1.4716   -0.8832    0.2156 C   0  0  0  0  0  0  0  0  0  0  0  0
   -1.4921   -1.6966    1.3917 O   0  0  0  0  0  0  0  0  0  0  0  0
   -2.8916   -0.3906   -0.1087 C   0  0  0  0  0  0  0  0  0  0  0  0
   -2.8918    0.4135   -1.2838 O   0  0  0  0  0  0  0  0  0  0  0  0
    2.8147   -1.2490   -0.1891 H   0  0  0  0  0  0  0  0  0  0  0  0
    3.5576    1.4439   -0.6335 H   0  0  0  0  0  0  0  0  0  0  0  0
    2.1630    0.6937   -1.3833 H   0  0  0  0  0  0  0  0  0  0  0  0
    2.7242    0.7899    1.6281 H   0  0  0  0  0  0  0  0  0  0  0  0
    0.9859    2.3605    0.0355 H   0  0  0  0  0  0  0  0  0  0  0  0
    0.6747   -0.1160    2.1302 H   0  0  0  0  0  0  0  0  0  0  0  0
    0.6035   -2.0144    1.1068 H   0  0  0  0  0  0  0  0  0  0  0  0
   -0.9507    1.0649    1.0227 H   0  0  0  0  0  0  0  0  0  0  0  0
   -1.1395    0.9736   -1.3400 H   0  0  0  0  0  0  0  0  0  0  0  0
   -1.1249   -1.5026   -0.6215 H   0  0  0  0  0  0  0  0  0  0  0  0
   -2.0986   -2.4409    1.2223 H   0  0  0  0  0  0  0  0  0  0  0  0
   -3.2964    0.1951    0.7239 H   0  0  0  0  0  0  0  0  0  0  0  0
   -3.5595   -1.2450   -0.2639 H   0  0  0  0  0  0  0  0  0  0  0  0
   -3.8212    0.6489   -1.4654 H   0  0  0  0  0  0  0  0  0  0  0  0
  1  2  1  0
  2  3  1  0
  3  4  1  0
  3  5  1  0
  5  6  1  0
  5  7  1  0
  7  8  1  0
  7  9  1  0
  9 10  1  0
  9 11  1  0
 11 12  1  0
  1 13  1  0
  2 14  1  0
  2 15  1  0
  3 16  1  0
  4 17  1  0
  5 18  1  0
  6 19  1  0
  7 20  1  0
  8 21  1  0
  9 22  1  0
 10 23  1  0
 11 24  1  0
 11 25  1  0
 12 26  1  0
M  END
>  <Conformer_ID>  (16) 
9

>  <MMFF94_energy_kcal_mol>  (16) 
106.43918718896697

>  <Relative_MMFF94_energy_kcal_mol>  (16) 
17.702824953622553

>  <Optimization_converged>  (16) 
True

>  <Method>  (16) 
ETKDGv3 + MMFF94

$$$$
