
     RDKit          3D

 24 25  0  0  0  0  0  0  0  0999 V2000
   -1.5157    2.7568    0.3536 C   0  0  0  0  0  0  0  0  0  0  0  0
   -0.9718    1.4275    0.1564 N   0  0  0  0  0  0  0  0  0  0  0  0
    0.4160    1.2913    0.0582 C   0  0  0  0  0  0  0  0  0  0  0  0
    1.2127    2.2225    0.1273 O   0  0  0  0  0  0  0  0  0  0  0  0
    0.8243   -0.0563   -0.1334 C   0  0  0  0  0  0  0  0  0  0  0  0
   -0.0503   -1.0972   -0.2116 C   0  0  0  0  0  0  0  0  0  0  0  0
    0.5882   -2.2861   -0.3969 N   0  0  0  0  0  0  0  0  0  0  0  0
    1.8674   -1.9694   -0.4324 C   0  0  0  0  0  0  0  0  0  0  0  0
    2.0587   -0.6219   -0.2760 N   0  0  0  0  0  0  0  0  0  0  0  0
    3.3269    0.0620   -0.2653 C   0  0  0  0  0  0  0  0  0  0  0  0
   -1.4078   -0.9125   -0.1091 N   0  0  0  0  0  0  0  0  0  0  0  0
   -2.3052   -2.0498   -0.1980 C   0  0  0  0  0  0  0  0  0  0  0  0
   -1.9091    0.3757    0.0805 C   0  0  0  0  0  0  0  0  0  0  0  0
   -3.1199    0.5970    0.1789 O   0  0  0  0  0  0  0  0  0  0  0  0
   -0.7407    3.5255    0.4037 H   0  0  0  0  0  0  0  0  0  0  0  0
   -2.0904    2.7713    1.2855 H   0  0  0  0  0  0  0  0  0  0  0  0
   -2.1938    2.9901   -0.4740 H   0  0  0  0  0  0  0  0  0  0  0  0
    2.6838   -2.6680   -0.5672 H   0  0  0  0  0  0  0  0  0  0  0  0
    3.4435    0.5640    0.6984 H   0  0  0  0  0  0  0  0  0  0  0  0
    3.3390    0.7858   -1.0840 H   0  0  0  0  0  0  0  0  0  0  0  0
    4.1332   -0.6630   -0.4027 H   0  0  0  0  0  0  0  0  0  0  0  0
   -2.0664   -2.7569    0.6028 H   0  0  0  0  0  0  0  0  0  0  0  0
   -2.1704   -2.5363   -1.1693 H   0  0  0  0  0  0  0  0  0  0  0  0
   -3.3523   -1.7520   -0.0995 H   0  0  0  0  0  0  0  0  0  0  0  0
  1  2  1  0
  2  3  1  0
  3  4  2  0
  3  5  1  0
  5  6  2  0
  6  7  1  0
  7  8  2  0
  8  9  1  0
  9 10  1  0
  6 11  1  0
 11 12  1  0
 11 13  1  0
 13 14  2  0
 13  2  1  0
  9  5  1  0
  1 15  1  0
  1 16  1  0
  1 17  1  0
  8 18  1  0
 10 19  1  0
 10 20  1  0
 10 21  1  0
 12 22  1  0
 12 23  1  0
 12 24  1  0
M  END
>  <Conformer_ID>  (1) 
0

>  <MMFF94_energy_kcal_mol>  (1) 
-122.52841048559941

>  <Relative_MMFF94_energy_kcal_mol>  (1) 
0.0

>  <Optimization_converged>  (1) 
True

>  <Method>  (1) 
ETKDGv3 + MMFF94

$$$$
