
     RDKit          3D

 20 20  0  0  0  0  0  0  0  0999 V2000
    3.7105   -0.0366    0.0246 C   0  0  0  0  0  0  0  0  0  0  0  0
    2.3169   -0.4906   -0.3328 C   0  0  0  0  0  0  0  0  0  0  0  0
    2.1427   -1.4460   -1.0805 O   0  0  0  0  0  0  0  0  0  0  0  0
    1.3441    0.3019    0.2492 N   0  0  0  0  0  0  0  0  0  0  0  0
   -0.0550    0.1717    0.1302 C   0  0  0  0  0  0  0  0  0  0  0  0
   -0.6866   -0.8267   -0.6157 C   0  0  0  0  0  0  0  0  0  0  0  0
   -2.0834   -0.8893   -0.6838 C   0  0  0  0  0  0  0  0  0  0  0  0
   -2.8474    0.0503   -0.0025 C   0  0  0  0  0  0  0  0  0  0  0  0
   -4.2091    0.0252   -0.0424 O   0  0  0  0  0  0  0  0  0  0  0  0
   -2.2384    1.0489    0.7441 C   0  0  0  0  0  0  0  0  0  0  0  0
   -0.8442    1.1095    0.8106 C   0  0  0  0  0  0  0  0  0  0  0  0
    4.4051   -0.8743   -0.0866 H   0  0  0  0  0  0  0  0  0  0  0  0
    4.0097    0.7747   -0.6442 H   0  0  0  0  0  0  0  0  0  0  0  0
    3.7567    0.3055    1.0626 H   0  0  0  0  0  0  0  0  0  0  0  0
    1.6672    1.0710    0.8222 H   0  0  0  0  0  0  0  0  0  0  0  0
   -0.1201   -1.5766   -1.1590 H   0  0  0  0  0  0  0  0  0  0  0  0
   -2.5463   -1.6760   -1.2713 H   0  0  0  0  0  0  0  0  0  0  0  0
   -4.4873   -0.7210   -0.5989 H   0  0  0  0  0  0  0  0  0  0  0  0
   -2.8453    1.7782    1.2729 H   0  0  0  0  0  0  0  0  0  0  0  0
   -0.3896    1.9000    1.4012 H   0  0  0  0  0  0  0  0  0  0  0  0
  1  2  1  0
  2  3  2  0
  2  4  1  0
  4  5  1  0
  5  6  1  0
  6  7  2  0
  7  8  1  0
  8  9  1  0
  8 10  2  0
 10 11  1  0
 11  5  2  0
  1 12  1  0
  1 13  1  0
  1 14  1  0
  4 15  1  0
  6 16  1  0
  7 17  1  0
  9 18  1  0
 10 19  1  0
 11 20  1  0
M  END
>  <Conformer_ID>  (1) 
1

>  <MMFF94_energy_kcal_mol>  (1) 
-12.7759744950981

>  <Relative_MMFF94_energy_kcal_mol>  (1) 
0.0

>  <Optimization_converged>  (1) 
True

>  <Method>  (1) 
ETKDGv3 + MMFF94

$$$$

     RDKit          3D

 20 20  0  0  0  0  0  0  0  0999 V2000
    3.6706   -0.5422   -0.0546 C   0  0  0  0  0  0  0  0  0  0  0  0
    2.2107   -0.8850   -0.2208 C   0  0  0  0  0  0  0  0  0  0  0  0
    1.8683   -2.0055   -0.5807 O   0  0  0  0  0  0  0  0  0  0  0  0
    1.3849    0.1764    0.1027 N   0  0  0  0  0  0  0  0  0  0  0  0
   -0.0244    0.2106    0.0673 C   0  0  0  0  0  0  0  0  0  0  0  0
   -0.8228   -0.8658   -0.3277 C   0  0  0  0  0  0  0  0  0  0  0  0
   -2.2180   -0.7525   -0.3365 C   0  0  0  0  0  0  0  0  0  0  0  0
   -2.8128    0.4419    0.0509 C   0  0  0  0  0  0  0  0  0  0  0  0
   -4.1668    0.5941    0.0568 O   0  0  0  0  0  0  0  0  0  0  0  0
   -2.0368    1.5223    0.4457 C   0  0  0  0  0  0  0  0  0  0  0  0
   -0.6444    1.4069    0.4538 C   0  0  0  0  0  0  0  0  0  0  0  0
    3.8684    0.4882   -0.3638 H   0  0  0  0  0  0  0  0  0  0  0  0
    4.2730   -1.2053   -0.6823 H   0  0  0  0  0  0  0  0  0  0  0  0
    3.9565   -0.6739    0.9922 H   0  0  0  0  0  0  0  0  0  0  0  0
    1.8381    1.0282    0.4084 H   0  0  0  0  0  0  0  0  0  0  0  0
   -0.3906   -1.8124   -0.6370 H   0  0  0  0  0  0  0  0  0  0  0  0
   -2.8126   -1.6055   -0.6479 H   0  0  0  0  0  0  0  0  0  0  0  0
   -4.5717   -0.2379   -0.2395 H   0  0  0  0  0  0  0  0  0  0  0  0
   -2.5123    2.4515    0.7464 H   0  0  0  0  0  0  0  0  0  0  0  0
   -0.0573    2.2659    0.7666 H   0  0  0  0  0  0  0  0  0  0  0  0
  1  2  1  0
  2  3  2  0
  2  4  1  0
  4  5  1  0
  5  6  1  0
  6  7  2  0
  7  8  1  0
  8  9  1  0
  8 10  2  0
 10 11  1  0
 11  5  2  0
  1 12  1  0
  1 13  1  0
  1 14  1  0
  4 15  1  0
  6 16  1  0
  7 17  1  0
  9 18  1  0
 10 19  1  0
 11 20  1  0
M  END
>  <Conformer_ID>  (2) 
0

>  <MMFF94_energy_kcal_mol>  (2) 
-12.775974494129311

>  <Relative_MMFF94_energy_kcal_mol>  (2) 
9.687877167152692e-10

>  <Optimization_converged>  (2) 
True

>  <Method>  (2) 
ETKDGv3 + MMFF94

$$$$
