
     RDKit          3D

 21 21  0  0  0  0  0  0  0  0999 V2000
   -2.6543   -2.2010   -0.0705 C   0  0  0  0  0  0  0  0  0  0  0  0
   -1.8250   -0.9953    0.2561 C   0  0  0  0  0  0  0  0  0  0  0  0
   -1.9080   -0.3599    1.2994 O   0  0  0  0  0  0  0  0  0  0  0  0
   -0.9872   -0.7209   -0.8192 O   0  0  0  0  0  0  0  0  0  0  0  0
   -0.1116    0.3379   -0.5613 C   0  0  0  0  0  0  0  0  0  0  0  0
   -0.4629    1.5868   -1.0841 C   0  0  0  0  0  0  0  0  0  0  0  0
    0.3804    2.6786   -0.8877 C   0  0  0  0  0  0  0  0  0  0  0  0
    1.5733    2.5193   -0.1834 C   0  0  0  0  0  0  0  0  0  0  0  0
    1.9307    1.2648    0.3218 C   0  0  0  0  0  0  0  0  0  0  0  0
    1.0935    0.1542    0.1321 C   0  0  0  0  0  0  0  0  0  0  0  0
    1.4808   -1.1879    0.6410 C   0  0  0  0  0  0  0  0  0  0  0  0
    0.8866   -2.2369    0.4734 O   0  0  0  0  0  0  0  0  0  0  0  0
    2.6254   -1.1603    1.3509 O   0  0  0  0  0  0  0  0  0  0  0  0
   -3.3073   -1.9821   -0.9187 H   0  0  0  0  0  0  0  0  0  0  0  0
   -3.2736   -2.4587    0.7934 H   0  0  0  0  0  0  0  0  0  0  0  0
   -2.0036   -3.0503   -0.2938 H   0  0  0  0  0  0  0  0  0  0  0  0
   -1.3921    1.7096   -1.6335 H   0  0  0  0  0  0  0  0  0  0  0  0
    0.1073    3.6545   -1.2818 H   0  0  0  0  0  0  0  0  0  0  0  0
    2.2300    3.3724   -0.0279 H   0  0  0  0  0  0  0  0  0  0  0  0
    2.8703    1.1663    0.8609 H   0  0  0  0  0  0  0  0  0  0  0  0
    2.7471   -2.0912    1.6327 H   0  0  0  0  0  0  0  0  0  0  0  0
  1  2  1  0
  2  3  2  0
  2  4  1  0
  4  5  1  0
  5  6  2  0
  6  7  1  0
  7  8  2  0
  8  9  1  0
  9 10  2  0
 10 11  1  0
 11 12  2  0
 11 13  1  0
 10  5  1  0
  1 14  1  0
  1 15  1  0
  1 16  1  0
  6 17  1  0
  7 18  1  0
  8 19  1  0
  9 20  1  0
 13 21  1  0
M  END
>  <Conformer_ID>  (1) 
0

>  <MMFF94_energy_kcal_mol>  (1) 
18.909768978227525

>  <Relative_MMFF94_energy_kcal_mol>  (1) 
0.0

>  <Optimization_converged>  (1) 
True

>  <Method>  (1) 
ETKDGv3 + MMFF94

$$$$

     RDKit          3D

 21 21  0  0  0  0  0  0  0  0999 V2000
    3.1802    1.3346    0.0070 C   0  0  0  0  0  0  0  0  0  0  0  0
    1.9948    0.5061   -0.3889 C   0  0  0  0  0  0  0  0  0  0  0  0
    1.7579    0.1388   -1.5326 O   0  0  0  0  0  0  0  0  0  0  0  0
    1.2486    0.2164    0.7480 O   0  0  0  0  0  0  0  0  0  0  0  0
    0.0716   -0.4789    0.4552 C   0  0  0  0  0  0  0  0  0  0  0  0
    0.0927   -1.8634    0.6531 C   0  0  0  0  0  0  0  0  0  0  0  0
   -1.0561   -2.6127    0.4073 C   0  0  0  0  0  0  0  0  0  0  0  0
   -2.2220   -1.9795   -0.0221 C   0  0  0  0  0  0  0  0  0  0  0  0
   -2.2450   -0.5923   -0.2008 C   0  0  0  0  0  0  0  0  0  0  0  0
   -1.0971    0.1778    0.0433 C   0  0  0  0  0  0  0  0  0  0  0  0
   -1.1225    1.6556   -0.1166 C   0  0  0  0  0  0  0  0  0  0  0  0
   -0.2257    2.4379    0.1389 O   0  0  0  0  0  0  0  0  0  0  0  0
   -2.2993    2.1028   -0.5963 O   0  0  0  0  0  0  0  0  0  0  0  0
    2.8456    2.2477    0.5058 H   0  0  0  0  0  0  0  0  0  0  0  0
    3.7400    1.6164   -0.8894 H   0  0  0  0  0  0  0  0  0  0  0  0
    3.8344    0.7547    0.6625 H   0  0  0  0  0  0  0  0  0  0  0  0
    1.0013   -2.3557    0.9885 H   0  0  0  0  0  0  0  0  0  0  0  0
   -1.0428   -3.6908    0.5483 H   0  0  0  0  0  0  0  0  0  0  0  0
   -3.1178   -2.5650   -0.2166 H   0  0  0  0  0  0  0  0  0  0  0  0
   -3.1694   -0.1224   -0.5291 H   0  0  0  0  0  0  0  0  0  0  0  0
   -2.1694    3.0718   -0.6655 H   0  0  0  0  0  0  0  0  0  0  0  0
  1  2  1  0
  2  3  2  0
  2  4  1  0
  4  5  1  0
  5  6  2  0
  6  7  1  0
  7  8  2  0
  8  9  1  0
  9 10  2  0
 10 11  1  0
 11 12  2  0
 11 13  1  0
 10  5  1  0
  1 14  1  0
  1 15  1  0
  1 16  1  0
  6 17  1  0
  7 18  1  0
  8 19  1  0
  9 20  1  0
 13 21  1  0
M  END
>  <Conformer_ID>  (2) 
1

>  <MMFF94_energy_kcal_mol>  (2) 
18.909768979148033

>  <Relative_MMFF94_energy_kcal_mol>  (2) 
9.205081141772098e-10

>  <Optimization_converged>  (2) 
True

>  <Method>  (2) 
ETKDGv3 + MMFF94

$$$$
